; Filename: redes/exnet_0hThyago.inp
; WNTR: 0.2.3
; Created: 2020-11-04 13:22:41
[TITLE]
EXNET water distribution network 2004

[JUNCTIONS]
;ID                      Elevation       Demand Pattern                 
 1107                            57.1           62.77 Demand                     ;
 677                                9           11.21 Demand                     ;
 1438                               2            9.28 Demand                     ;
 1486                               2            9.26 Demand                     ;
 1623                               2            9.26 Demand                     ;
 1564                               2            9.26 Demand                     ;
 1626                               2            9.26 Demand                     ;
 1497                               2            9.26 Demand                     ;
 1994                               5             8.4 Demand                     ;
 1566                              15            7.24 Demand                     ;
 1877                               8            6.14 Demand                     ;
 1909                             1.7            5.13 Demand                     ;
 102                               18            4.77 Demand                     ;
 1837                               2            4.56 Demand                     ;
 1961                              11            4.54 Demand                     ;
 2038                               8            4.47 Demand                     ;
 409                                3            4.43 Demand                     ;
 1880                               3            4.34 Demand                     ;
 1239                              32            4.14 Demand                     ;
 1314                               3            4.05 Demand                     ;
 293                               23            3.85 Demand                     ;
 1082                              23            3.76 Demand                     ;
 2044                               9            3.74 Demand                     ;
 1150                              33            3.68 Demand                     ;
 743                               16            3.61 Demand                     ;
 1595                               7            3.46 Demand                     ;
 2008                               8             3.3 Demand                     ;
 1472                               8            3.25 Demand                     ;
 1998                               3            3.24 Demand                     ;
 638                               37            3.22 Demand                     ;
 522                               28            3.21 Demand                     ;
 1254                               2            3.19 Demand                     ;
 1873                               2            3.15 Demand                     ;
 1170                              34            3.09 Demand                     ;
 690                               17            3.09 Demand                     ;
 486                               14            3.08 Demand                     ;
 2031                              11            3.07 Demand                     ;
 1594                               6            3.03 Demand                     ;
 156                               25            3.02 Demand                     ;
 777                               10            3.01 Demand                     ;
 665                                9            2.94 Demand                     ;
 1310                               7            2.92 Demand                     ;
 619                               16             2.9 Demand                     ;
 378                                6             2.9 Demand                     ;
 1815                               2            2.87 Demand                     ;
 100                                2            2.87 Demand                     ;
 1450                              13            2.87 Demand                     ;
 1370                               9            2.86 Demand                     ;
 528                               14            2.86 Demand                     ;
 255                               19            2.84 Demand                     ;
 1711                              12            2.82 Demand                     ;
 1454                               7             2.8 Demand                     ;
 1259                               9            2.79 Demand                     ;
 1871                              21            2.72 Demand                     ;
 1846                               3            2.72 Demand                     ;
 2000                              11            2.69 Demand                     ;
 1132                               8            2.69 Demand                     ;
 1745                               5            2.68 Demand                     ;
 1945                               7            2.68 Demand                     ;
 1952                              22            2.63 Demand                     ;
 2045                               9            2.62 Demand                     ;
 2032                               6            2.61 Demand                     ;
 1735                               6            2.58 Demand                     ;
 1437                               9            2.58 Demand                     ;
 466                               25            2.58 Demand                     ;
 1142                              30            2.58 Demand                     ;
 1389                               9            2.57 Demand                     ;
 742                                4            2.56 Demand                     ;
 1148                              40            2.56 Demand                     ;
 110                               14            2.54 Demand                     ;
 1384                               4            2.53 Demand                     ;
 936                               29            2.52 Demand                     ;
 1582                              10            2.52 Demand                     ;
 1515                               6            2.48 Demand                     ;
 570                               21            2.48 Demand                     ;
 138                               12            2.48 Demand                     ;
 1865                               7            2.47 Demand                     ;
 437                               14            2.45 Demand                     ;
 1853                               6            2.45 Demand                     ;
 2033                               6            2.44 Demand                     ;
 1465                               8            2.44 Demand                     ;
 1869                               6            2.43 Demand                     ;
 815                               24            2.43 Demand                     ;
 1630                               7            2.43 Demand                     ;
 1820                              25            2.42 Demand                     ;
 1599                              18            2.42 Demand                     ;
 1440                              23            2.42 Demand                     ;
 2018                               8            2.41 Demand                     ;
 1801                               2             2.4 Demand                     ;
 1836                               8            2.39 Demand                     ;
 1844                               8            2.39 Demand                     ;
 8                                 12            2.39 Demand                     ;
 651                               11            2.39 Demand                     ;
 851                               12            2.39 Demand                     ;
 753                               16            2.38 Demand                     ;
 2028                              11            2.37 Demand                     ;
 1965                              15            2.37 Demand                     ;
 1895                              20            2.36 Demand                     ;
 731                               35            2.36 Demand                     ;
 1531                              15            2.34 Demand                     ;
 1224                              32            2.33 Demand                     ;
 2030                              10            2.33 Demand                     ;
 2004                               9            2.33 Demand                     ;
 2009                               6            2.32 Demand                     ;
 635                               16            2.31 Demand                     ;
 410                               17             2.3 Demand                     ;
 1712                              11            2.29 Demand                     ;
 1369                               6            2.28 Demand                     ;
 1935                              19            2.23 Demand                     ;
 652                               17            2.22 Demand                     ;
 1398                              19            2.22 Demand                     ;
 1423                              13            2.21 Demand                     ;
 714                                9             2.2 Demand                     ;
 1854                              12             2.2 Demand                     ;
 1872                              25            2.19 Demand                     ;
 694                               18            2.19 Demand                     ;
 710                                8            2.19 Demand                     ;
 979                               32            2.18 Demand                     ;
 322                               43            2.18 Demand                     ;
 1348                               6            2.17 Demand                     ;
 959                               27            2.17 Demand                     ;
 1262                               9            2.16 Demand                     ;
 1825                               7            2.15 Demand                     ;
 53                                17            2.15 Demand                     ;
 1891                              17            2.15 Demand                     ;
 1435                               8            2.14 Demand                     ;
 744                               34            2.13 Demand                     ;
 1749                               9            2.12 Demand                     ;
 678                               16            2.12 Demand                     ;
 1418                               7            2.11 Demand                     ;
 1316                              25            2.11 Demand                     ;
 121                                6            2.11 Demand                     ;
 2010                               9             2.1 Demand                     ;
 1780                               8            2.09 Demand                     ;
 61                                13            2.09 Demand                     ;
 756                               16            2.07 Demand                     ;
 333                                6            2.07 Demand                     ;
 1439                               8            2.06 Demand                     ;
 1823                              13            2.06 Demand                     ;
 706                                3            2.06 Demand                     ;
 11                                24            2.05 Demand                     ;
 236                               18            2.05 Demand                     ;
 405                               22            2.04 Demand                     ;
 1424                              16            2.03 Demand                     ;
 365                                7            2.03 Demand                     ;
 304                               16            2.03 Demand                     ;
 454                                5            2.02 Demand                     ;
 1131                               8            2.02 Demand                     ;
 2011                               9            2.02 Demand                     ;
 87                                14            2.01 Demand                     ;
 1403                               2               2 Demand                     ;
 1876                              14               2 Demand                     ;
 1284                               2            1.99 Demand                     ;
 1011                              27            1.99 Demand                     ;
 967                               32            1.99 Demand                     ;
 1354                               6            1.99 Demand                     ;
 77                                25            1.99 Demand                     ;
 923                               32            1.98 Demand                     ;
 882                               20            1.98 Demand                     ;
 92                                17            1.97 Demand                     ;
 1308                               7            1.97 Demand                     ;
 609                               19            1.97 Demand                     ;
 976                               27            1.97 Demand                     ;
 418                                3            1.97 Demand                     ;
 880                               16            1.96 Demand                     ;
 1636                              13            1.96 Demand                     ;
 1920                               7            1.95 Demand                     ;
 1458                               9            1.95 Demand                     ;
 1252                               6            1.94 Demand                     ;
 893                               25            1.93 Demand                     ;
 1493                              16            1.93 Demand                     ;
 794                                4            1.92 Demand                     ;
 1625                              18            1.92 Demand                     ;
 1925                              31            1.92 Demand                     ;
 579                               21             1.9 Demand                     ;
 1491                              13             1.9 Demand                     ;
 461                                9             1.9 Demand                     ;
 326                                6            1.89 Demand                     ;
 553                               26            1.89 Demand                     ;
 10                                18            1.89 Demand                     ;
 1736                               2            1.88 Demand                     ;
 776                               14            1.88 Demand                     ;
 1642                              18            1.87 Demand                     ;
 1273                               7            1.87 Demand                     ;
 1221                               6            1.86 Demand                     ;
 282                                9            1.86 Demand                     ;
 191                                8            1.86 Demand                     ;
 1548                              11            1.86 Demand                     ;
 1269                              14            1.86 Demand                     ;
 1289                               9            1.85 Demand                     ;
 837                               16            1.85 Demand                     ;
 1459                               2            1.85 Demand                     ;
 65                                17            1.84 Demand                     ;
 1731                               7            1.84 Demand                     ;
 605                                3            1.84 Demand                     ;
 261                               19            1.83 Demand                     ;
 1499                              27            1.83 Demand                     ;
 539                                6            1.83 Demand                     ;
 1950                              36            1.82 Demand                     ;
 359                               17            1.82 Demand                     ;
 1234                              33            1.81 Demand                     ;
 305                               23            1.81 Demand                     ;
 737                               16            1.81 Demand                     ;
 383                                7             1.8 Demand                     ;
 1258                               8             1.8 Demand                     ;
 581                               22            1.79 Demand                     ;
 302                                8            1.78 Demand                     ;
 1817                              15            1.78 Demand                     ;
 1078                              28            1.77 Demand                     ;
 786                               30            1.76 Demand                     ;
 1719                               7            1.76 Demand                     ;
 555                                3            1.76 Demand                     ;
 1449                              16            1.75 Demand                     ;
 1129                              28            1.75 Demand                     ;
 1121                              28            1.75 Demand                     ;
 928                               37            1.75 Demand                     ;
 1349                               2            1.75 Demand                     ;
 1329                              27            1.75 Demand                     ;
 1177                              33            1.74 Demand                     ;
 1960                              14            1.74 Demand                     ;
 656                                8            1.74 Demand                     ;
 655                                4            1.73 Demand                     ;
 1479                              27            1.73 Demand                     ;
 292                               23            1.73 Demand                     ;
 1401                               7            1.73 Demand                     ;
 535                               19            1.73 Demand                     ;
 842                               16            1.73 Demand                     ;
 1306                              27            1.72 Demand                     ;
 1160                              34            1.72 Demand                     ;
 623                               14            1.71 Demand                     ;
 1357                               6             1.7 Demand                     ;
 704                               16             1.7 Demand                     ;
 1038                              31             1.7 Demand                     ;
 1436                               6             1.7 Demand                     ;
 641                                9            1.69 Demand                     ;
 1406                               7            1.69 Demand                     ;
 1772                               6            1.69 Demand                     ;
 1956                              18            1.69 Demand                     ;
 1663                              23            1.68 Demand                     ;
 336                               22            1.68 Demand                     ;
 501                               17            1.68 Demand                     ;
 747                               35            1.68 Demand                     ;
 617                                9            1.68 Demand                     ;
 1514                              12            1.67 Demand                     ;
 671                                3            1.67 Demand                     ;
 208                               31            1.67 Demand                     ;
 1765                              11            1.67 Demand                     ;
 1181                              35            1.67 Demand                     ;
 187                                8            1.66 Demand                     ;
 1615                              13            1.66 Demand                     ;
 136                               17            1.65 Demand                     ;
 1487                              25            1.65 Demand                     ;
 868                               27            1.64 Demand                     ;
 406                               23            1.64 Demand                     ;
 435                                3            1.64 Demand                     ;
 1788                               7            1.63 Demand                     ;
 925                               34            1.63 Demand                     ;
 1094                              32            1.62 Demand                     ;
 1141                              36            1.62 Demand                     ;
 1236                              41            1.62 Demand                     ;
 972                               32            1.62 Demand                     ;
 1412                               5            1.62 Demand                     ;
 211                               33            1.61 Demand                     ;
 682                               14            1.61 Demand                     ;
 1990                               6            1.61 Demand                     ;
 1845                              13            1.61 Demand                     ;
 1261                              11            1.61 Demand                     ;
 78                                24            1.61 Demand                     ;
 295                                9             1.6 Demand                     ;
 660                               16             1.6 Demand                     ;
 1495                              11            1.59 Demand                     ;
 1812                              15            1.59 Demand                     ;
 1818                              19            1.59 Demand                     ;
 1632                              11            1.59 Demand                     ;
 1926                              39            1.59 Demand                     ;
 578                               13            1.59 Demand                     ;
 1260                              11            1.58 Demand                     ;
 433                               16            1.58 Demand                     ;
 1878                               3            1.58 Demand                     ;
 310                                2            1.57 Demand                     ;
 548                                6            1.57 Demand                     ;
 666                               16            1.57 Demand                     ;
 1300                              30            1.57 Demand                     ;
 308                               32            1.57 Demand                     ;
 1627                              12            1.57 Demand                     ;
 857                               27            1.56 Demand                     ;
 436                               16            1.55 Demand                     ;
 377                                6            1.55 Demand                     ;
 1464                               8            1.55 Demand                     ;
 334                                6            1.54 Demand                     ;
 47                                13            1.54 Demand                     ;
 1467                               8            1.54 Demand                     ;
 285                                9            1.53 Demand                     ;
 1948                              11            1.53 Demand                     ;
 445                                7            1.53 Demand                     ;
 1957                              14            1.52 Demand                     ;
 93                                10            1.52 Demand                     ;
 1367                              16            1.52 Demand                     ;
 2037                              26            1.52 Demand                     ;
 1834                               8            1.52 Demand                     ;
 1814                               7            1.52 Demand                     ;
 1339                              26            1.52 Demand                     ;
 1165                              32            1.52 Demand                     ;
 1058                              28            1.52 Demand                     ;
 477                               34            1.51 Demand                     ;
 1140                               6             1.5 Demand                     ;
 1979                              15             1.5 Demand                     ;
 1902                               6             1.5 Demand                     ;
 128                               18            1.49 Demand                     ;
 371                               22            1.49 Demand                     ;
 1408                               2            1.49 Demand                     ;
 1426                               8            1.48 Demand                     ;
 843                                4            1.48 Demand                     ;
 631                               28            1.48 Demand                     ;
 275                                7            1.48 Demand                     ;
 1211                              33            1.48 Demand                     ;
 2013                               9            1.47 Demand                     ;
 1046                              34            1.47 Demand                     ;
 68                                15            1.47 Demand                     ;
 381                               17            1.47 Demand                     ;
 1263                              19            1.46 Demand                     ;
 1109                              34            1.46 Demand                     ;
 911                               22            1.46 Demand                     ;
 252                               16            1.45 Demand                     ;
 1695                              13            1.45 Demand                     ;
 1151                              36            1.45 Demand                     ;
 1003                               7            1.44 Demand                     ;
 1560                              13            1.44 Demand                     ;
 490                                3            1.44 Demand                     ;
 1402                               7            1.44 Demand                     ;
 819                               30            1.43 Demand                     ;
 1770                              13            1.43 Demand                     ;
 1617                              13            1.43 Demand                     ;
 1634                              12            1.43 Demand                     ;
 1739                               3            1.43 Demand                     ;
 1394                              14            1.43 Demand                     ;
 367                               16            1.43 Demand                     ;
 901                               22            1.43 Demand                     ;
 1605                              10            1.42 Demand                     ;
 169                               12            1.42 Demand                     ;
 1829                               6            1.42 Demand                     ;
 1087                               3            1.42 Demand                     ;
 1489                              12            1.41 Demand                     ;
 829                               23            1.41 Demand                     ;
 625                               10            1.41 Demand                     ;
 1337                               7             1.4 Demand                     ;
 1973                               4             1.4 Demand                     ;
 719                                9             1.4 Demand                     ;
 500                               30             1.4 Demand                     ;
 1572                               9             1.4 Demand                     ;
 1413                               8             1.4 Demand                     ;
 708                               16             1.4 Demand                     ;
 1547                              16            1.39 Demand                     ;
 662                               16            1.39 Demand                     ;
 746                               16            1.39 Demand                     ;
 951                               27            1.38 Demand                     ;
 811                               16            1.38 Demand                     ;
 12                                12            1.38 Demand                     ;