[TITLE]
EXNET water distribution network 2004

[JUNCTIONS]
;ID              	Elev        	Demand      	Pattern         
 1107            	57.10000    	62.77       	Demand          	;
 677             	9.00000     	11.21       	Demand          	;
 1438            	2.00000     	9.28        	Demand          	;
 1486            	2.00000     	9.26        	Demand          	;
 1623            	2.00000     	9.26        	Demand          	;
 1564            	2.00000     	9.26        	Demand          	;
 1626            	2.00000     	9.26        	Demand          	;
 1497            	2.00000     	9.26        	Demand          	;
 1994            	5.00000     	8.40        	Demand          	;
 1566            	15.00000    	7.24        	Demand          	;
 1877            	8.00000     	6.14        	Demand          	;
 1909            	1.70000     	5.13        	Demand          	;
 102             	18.00000    	4.77        	Demand          	;
 1837            	2.00000     	4.56        	Demand          	;
 1961            	11.00000    	4.54        	Demand          	;
 2038            	8.00000     	4.47        	Demand          	;
 409             	3.00000     	4.43        	Demand          	;
 1880            	3.00000     	4.34        	Demand          	;
 1239            	32.00000    	4.14        	Demand          	;
 1314            	3.00000     	4.05        	Demand          	;
 293             	23.00000    	3.85        	Demand          	;
 1082            	23.00000    	3.76        	Demand          	;
 2044            	9.00000     	3.74        	Demand          	;
 1150            	33.00000    	3.68        	Demand          	;
 743             	16.00000    	3.61        	Demand          	;
 1595            	7.00000     	3.46        	Demand          	;
 2008            	8.00000     	3.30        	Demand          	;
 1472            	8.00000     	3.25        	Demand          	;
 1998            	3.00000     	3.24        	Demand          	;
 638             	37.00000    	3.22        	Demand          	;
 522             	28.00000    	3.21        	Demand          	;
 1254            	2.00000     	3.19        	Demand          	;
 1873            	2.00000     	3.15        	Demand          	;
 1170            	34.00000    	3.09        	Demand          	;
 690             	17.00000    	3.09        	Demand          	;
 486             	14.00000    	3.08        	Demand          	;
 2031            	11.00000    	3.07        	Demand          	;
 1594            	6.00000     	3.03        	Demand          	;
 156             	25.00000    	3.02        	Demand          	;
 777             	10.00000    	3.01        	Demand          	;
 665             	9.00000     	2.94        	Demand          	;
 1310            	7.00000     	2.92        	Demand          	;
 619             	16.00000    	2.90        	Demand          	;
 378             	6.00000     	2.90        	Demand          	;
 1815            	2.00000     	2.87        	Demand          	;
 100             	2.00000     	2.87        	Demand          	;
 1450            	13.00000    	2.87        	Demand          	;
 1370            	9.00000     	2.86        	Demand          	;
 528             	14.00000    	2.86        	Demand          	;
 255             	19.00000    	2.84        	Demand          	;
 1711            	12.00000    	2.82        	Demand          	;
 1454            	7.00000     	2.80        	Demand          	;
 1259            	9.00000     	2.79        	Demand          	;
 1871            	21.00000    	2.72        	Demand          	;
 1846            	3.00000     	2.72        	Demand          	;
 2000            	11.00000    	2.69        	Demand          	;
 1132            	8.00000     	2.69        	Demand          	;
 1745            	5.00000     	2.68        	Demand          	;
 1945            	7.00000     	2.68        	Demand          	;
 1952            	22.00000    	2.63        	Demand          	;
 2045            	9.00000     	2.62        	Demand          	;
 2032            	6.00000     	2.61        	Demand          	;
 1735            	6.00000     	2.58        	Demand          	;
 1437            	9.00000     	2.58        	Demand          	;
 466             	25.00000    	2.58        	Demand          	;
 1142            	30.00000    	2.58        	Demand          	;
 1389            	9.00000     	2.57        	Demand          	;
 742             	4.00000     	2.56        	Demand          	;
 1148            	40.00000    	2.56        	Demand          	;
 110             	14.00000    	2.54        	Demand          	;
 1384            	4.00000     	2.53        	Demand          	;
 936             	29.00000    	2.52        	Demand          	;
 1582            	10.00000    	2.52        	Demand          	;
 1515            	6.00000     	2.48        	Demand          	;
 570             	21.00000    	2.48        	Demand          	;
 138             	12.00000    	2.48        	Demand          	;
 1865            	7.00000     	2.47        	Demand          	;
 437             	14.00000    	2.45        	Demand          	;
 1853            	6.00000     	2.45        	Demand          	;
 2033            	6.00000     	2.44        	Demand          	;
 1465            	8.00000     	2.44        	Demand          	;
 1869            	6.00000     	2.43        	Demand          	;
 815             	24.00000    	2.43        	Demand          	;
 1630            	7.00000     	2.43        	Demand          	;
 1820            	25.00000    	2.42        	Demand          	;
 1599            	18.00000    	2.42        	Demand          	;
 1440            	23.00000    	2.42        	Demand          	;
 2018            	8.00000     	2.41        	Demand          	;
 1801            	2.00000     	2.40        	Demand          	;
 1836            	8.00000     	2.39        	Demand          	;
 1844            	8.00000     	2.39        	Demand          	;
 8               	12.00000    	2.39        	Demand          	;
 651             	11.00000    	2.39        	Demand          	;
 851             	12.00000    	2.39        	Demand          	;
 753             	16.00000    	2.38        	Demand          	;
 2028            	11.00000    	2.37        	Demand          	;
 1965            	15.00000    	2.37        	Demand          	;
 1895            	20.00000    	2.36        	Demand          	;
 731             	35.00000    	2.36        	Demand          	;
 1531            	15.00000    	2.34        	Demand          	;
 1224            	32.00000    	2.33        	Demand          	;
 2030            	10.00000    	2.33        	Demand          	;
 2004            	9.00000     	2.33        	Demand          	;
 2009            	6.00000     	2.32        	Demand          	;
 635             	16.00000    	2.31        	Demand          	;
 410             	17.00000    	2.30        	Demand          	;
 1712            	11.00000    	2.29        	Demand          	;
 1369            	6.00000     	2.28        	Demand          	;
 1935            	19.00000    	2.23        	Demand          	;
 652             	17.00000    	2.22        	Demand          	;
 1398            	19.00000    	2.22        	Demand          	;
 1423            	13.00000    	2.21        	Demand          	;
 714             	9.00000     	2.20        	Demand          	;
 1854            	12.00000    	2.20        	Demand          	;
 1872            	25.00000    	2.19        	Demand          	;
 694             	18.00000    	2.19        	Demand          	;
 710             	8.00000     	2.19        	Demand          	;
 979             	32.00000    	2.18        	Demand          	;
 322             	43.00000    	2.18        	Demand          	;
 1348            	6.00000     	2.17        	Demand          	;
 959             	27.00000    	2.17        	Demand          	;
 1262            	9.00000     	2.16        	Demand          	;
 1825            	7.00000     	2.15        	Demand          	;
 53              	17.00000    	2.15        	Demand          	;
 1891            	17.00000    	2.15        	Demand          	;
 1435            	8.00000     	2.14        	Demand          	;
 744             	34.00000    	2.13        	Demand          	;
 1749            	9.00000     	2.12        	Demand          	;
 678             	16.00000    	2.12        	Demand          	;
 1418            	7.00000     	2.11        	Demand          	;
 1316            	25.00000    	2.11        	Demand          	;
 121             	6.00000     	2.11        	Demand          	;
 2010            	9.00000     	2.10        	Demand          	;
 1780            	8.00000     	2.09        	Demand          	;
 61              	13.00000    	2.09        	Demand          	;
 756             	16.00000    	2.07        	Demand          	;
 333             	6.00000     	2.07        	Demand          	;
 1439            	8.00000     	2.06        	Demand          	;
 1823            	13.00000    	2.06        	Demand          	;
 706             	3.00000     	2.06        	Demand          	;
 11              	24.00000    	2.05        	Demand          	;
 236             	18.00000    	2.05        	Demand          	;
 405             	22.00000    	2.04        	Demand          	;
 1424            	16.00000    	2.03        	Demand          	;
 365             	7.00000     	2.03        	Demand          	;
 304             	16.00000    	2.03        	Demand          	;
 454             	5.00000     	2.02        	Demand          	;
 1131            	8.00000     	2.02        	Demand          	;
 2011            	9.00000     	2.02        	Demand          	;
 87              	14.00000    	2.01        	Demand          	;
 1403            	2.00000     	2.00        	Demand          	;
 1876            	14.00000    	2.00        	Demand          	;
 1284            	2.00000     	1.99        	Demand          	;
 1011            	27.00000    	1.99        	Demand          	;
 967             	32.00000    	1.99        	Demand          	;
 1354            	6.00000     	1.99        	Demand          	;
 77              	25.00000    	1.99        	Demand          	;
 923             	32.00000    	1.98        	Demand          	;
 882             	20.00000    	1.98        	Demand          	;
 92              	17.00000    	1.97        	Demand          	;
 1308            	7.00000     	1.97        	Demand          	;
 609             	19.00000    	1.97        	Demand          	;
 976             	27.00000    	1.97        	Demand          	;
 418             	3.00000     	1.97        	Demand          	;
 880             	16.00000    	1.96        	Demand          	;
 1636            	13.00000    	1.96        	Demand          	;
 1920            	7.00000     	1.95        	Demand          	;
 1458            	9.00000     	1.95        	Demand          	;
 1252            	6.00000     	1.94        	Demand          	;
 893             	25.00000    	1.93        	Demand          	;
 1493            	16.00000    	1.93        	Demand          	;
 794             	4.00000     	1.92        	Demand          	;
 1625            	18.00000    	1.92        	Demand          	;
 1925            	31.00000    	1.92        	Demand          	;
 579             	21.00000    	1.90        	Demand          	;
 1491            	13.00000    	1.90        	Demand          	;
 461             	9.00000     	1.90        	Demand          	;
 326             	6.00000     	1.89        	Demand          	;
 553             	26.00000    	1.89        	Demand          	;
 10              	18.00000    	1.89        	Demand          	;
 1736            	2.00000     	1.88        	Demand          	;
 776             	14.00000    	1.88        	Demand          	;
 1642            	18.00000    	1.87        	Demand          	;
 1273            	7.00000     	1.87        	Demand          	;
 1221            	6.00000     	1.86        	Demand          	;
 282             	9.00000     	1.86        	Demand          	;
 191             	8.00000     	1.86        	Demand          	;
 1548            	11.00000    	1.86        	Demand          	;
 1269            	14.00000    	1.86        	Demand          	;
 1289            	9.00000     	1.85        	Demand          	;
 837             	16.00000    	1.85        	Demand          	;
 1459            	2.00000     	1.85        	Demand          	;
 65              	17.00000    	1.84        	Demand          	;
 1731            	7.00000     	1.84        	Demand          	;
 605             	3.00000     	1.84        	Demand          	;
 261             	19.00000    	1.83        	Demand          	;
 1499            	27.00000    	1.83        	Demand          	;
 539             	6.00000     	1.83        	Demand          	;
 1950            	36.00000    	1.82        	Demand          	;
 359             	17.00000    	1.82        	Demand          	;
 1234            	33.00000    	1.81        	Demand          	;
 305             	23.00000    	1.81        	Demand          	;
 737             	16.00000    	1.81        	Demand          	;
 383             	7.00000     	1.80        	Demand          	;
 1258            	8.00000     	1.80        	Demand          	;
 581             	22.00000    	1.79        	Demand          	;
 302             	8.00000     	1.78        	Demand          	;
 1817            	15.00000    	1.78        	Demand          	;
 1078            	28.00000    	1.77        	Demand          	;
 786             	30.00000    	1.76        	Demand          	;
 1719            	7.00000     	1.76        	Demand          	;
 555             	3.00000     	1.76        	Demand          	;
 1449            	16.00000    	1.75        	Demand          	;
 1129            	28.00000    	1.75        	Demand          	;
 1121            	28.00000    	1.75        	Demand          	;
 928             	37.00000    	1.75        	Demand          	;
 1349            	2.00000     	1.75        	Demand          	;
 1329            	27.00000    	1.75        	Demand          	;
 1177            	33.00000    	1.74        	Demand          	;
 1960            	14.00000    	1.74        	Demand          	;
 656             	8.00000     	1.74        	Demand          	;
 655             	4.00000     	1.73        	Demand          	;
 1479            	27.00000    	1.73        	Demand          	;
 292             	23.00000    	1.73        	Demand          	;
 1401            	7.00000     	1.73        	Demand          	;
 535             	19.00000    	1.73        	Demand          	;
 842             	16.00000    	1.73        	Demand          	;
 1306            	27.00000    	1.72        	Demand          	;
 1160            	34.00000    	1.72        	Demand          	;
 623             	14.00000    	1.71        	Demand          	;
 1357            	6.00000     	1.70        	Demand          	;
 704             	16.00000    	1.70        	Demand          	;
 1038            	31.00000    	1.70        	Demand          	;
 1436            	6.00000     	1.70        	Demand          	;
 641             	9.00000     	1.69        	Demand          	;
 1406            	7.00000     	1.69        	Demand          	;
 1772            	6.00000     	1.69        	Demand          	;
 1956            	18.00000    	1.69        	Demand          	;
 1663            	23.00000    	1.68        	Demand          	;
 336             	22.00000    	1.68        	Demand          	;
 501             	17.00000    	1.68        	Demand          	;
 747             	35.00000    	1.68        	Demand          	;
 617             	9.00000     	1.68        	Demand          	;
 1514            	12.00000    	1.67        	Demand          	;
 671             	3.00000     	1.67        	Demand          	;
 208             	31.00000    	1.67        	Demand          	;
 1765            	11.00000    	1.67        	Demand          	;
 1181            	35.00000    	1.67        	Demand          	;
 187             	8.00000     	1.66        	Demand          	;
 1615            	13.00000    	1.66        	Demand          	;
 136             	17.00000    	1.65        	Demand          	;
 1487            	25.00000    	1.65        	Demand          	;
 868             	27.00000    	1.64        	Demand          	;
 406             	23.00000    	1.64        	Demand          	;
 435             	3.00000     	1.64        	Demand          	;
 1788            	7.00000     	1.63        	Demand          	;
 925             	34.00000    	1.63        	Demand          	;
 1094            	32.00000    	1.62        	Demand          	;
 1141            	36.00000    	1.62        	Demand          	;
 1236            	41.00000    	1.62        	Demand          	;
 972             	32.00000    	1.62        	Demand          	;
 1412            	5.00000     	1.62        	Demand          	;
 211             	33.00000    	1.61        	Demand          	;
 682             	14.00000    	1.61        	Demand          	;
 1990            	6.00000     	1.61        	Demand          	;
 1845            	13.00000    	1.61        	Demand          	;
 1261            	11.00000    	1.61        	Demand          	;
 78              	24.00000    	1.61        	Demand          	;
 295             	9.00000     	1.60        	Demand          	;
 660             	16.00000    	1.60        	Demand          	;
 1495            	11.00000    	1.59        	Demand          	;
 1812            	15.00000    	1.59        	Demand          	;
 1818            	19.00000    	1.59        	Demand          	;
 1632            	11.00000    	1.59        	Demand          	;
 1926            	39.00000    	1.59        	Demand          	;
 578             	13.00000    	1.59        	Demand          	;
 1260            	11.00000    	1.58        	Demand          	;
 433             	16.00000    	1.58        	Demand          	;
 1878            	3.00000     	1.58        	Demand          	;
 310             	2.00000     	1.57        	Demand          	;
 548             	6.00000     	1.57        	Demand          	;
 666             	16.00000    	1.57        	Demand          	;
 1300            	30.00000    	1.57        	Demand          	;
 308             	32.00000    	1.57        	Demand          	;
 1627            	12.00000    	1.57        	Demand          	;
 857             	27.00000    	1.56        	Demand          	;
 436             	16.00000    	1.55        	Demand          	;
 377             	6.00000     	1.55        	Demand          	;
 1464            	8.00000     	1.55        	Demand          	;
 334             	6.00000     	1.54        	Demand          	;
 47              	13.00000    	1.54        	Demand          	;
 1467            	8.00000     	1.54        	Demand          	;
 285             	9.00000     	1.53        	Demand          	;
 1948            	11.00000    	1.53        	Demand          	;
 445             	7.00000     	1.53        	Demand          	;
 1957            	14.00000    	1.52        	Demand          	;
 93              	10.00000    	1.52        	Demand          	;
 1367            	16.00000    	1.52        	Demand          	;
 2037            	26.00000    	1.52        	Demand          	;
 1834            	8.00000     	1.52        	Demand          	;
 1814            	7.00000     	1.52        	Demand          	;
 1339            	26.00000    	1.52        	Demand          	;
 1165            	32.00000    	1.52        	Demand          	;
 1058            	28.00000    	1.52        	Demand          	;
 477             	34.00000    	1.51        	Demand          	;
 1140            	6.00000     	1.50        	Demand          	;
 1979            	15.00000    	1.50        	Demand          	;
 1902            	6.00000     	1.50        	Demand          	;
 128             	18.00000    	1.49        	Demand          	;
 371             	22.00000    	1.49        	Demand          	;
 1408            	2.00000     	1.49        	Demand          	;
 1426            	8.00000     	1.48        	Demand          	;
 843             	4.00000     	1.48        	Demand          	;
 631             	28.00000    	1.48        	Demand          	;
 275             	7.00000     	1.48        	Demand          	;
 1211            	33.00000    	1.48        	Demand          	;
 2013            	9.00000     	1.47        	Demand          	;
 1046            	34.00000    	1.47        	Demand          	;
 68              	15.00000    	1.47        	Demand          	;
 381             	17.00000    	1.47        	Demand          	;
 1263            	19.00000    	1.46        	Demand          	;
 1109            	34.00000    	1.46        	Demand          	;
 911             	22.00000    	1.46        	Demand          	;
 252             	16.00000    	1.45        	Demand          	;
 1695            	13.00000    	1.45        	Demand          	;
 1151            	36.00000    	1.45        	Demand          	;
 1003            	7.00000     	1.44        	Demand          	;
 1560            	13.00000    	1.44        	Demand          	;
 490             	3.00000     	1.44        	Demand          	;
 1402            	7.00000     	1.44        	Demand          	;
 819             	30.00000    	1.43        	Demand          	;
 1770            	13.00000    	1.43        	Demand          	;
 1617            	13.00000    	1.43        	Demand          	;
 1634            	12.00000    	1.43        	Demand          	;
 1739            	3.00000     	1.43        	Demand          	;
 1394            	14.00000    	1.43        	Demand          	;
 367             	16.00000    	1.43        	Demand          	;
 901             	22.00000    	1.43        	Demand          	;
 1605            	10.00000    	1.42        	Demand          	;
 169             	12.00000    	1.42        	Demand          	;
 1829            	6.00000     	1.42        	Demand          	;
 1087            	3.00000     	1.42        	Demand          	;
 1489            	12.00000    	1.41        	Demand          	;
 829             	23.00000    	1.41        	Demand          	;
 625             	10.00000    	1.41        	Demand          	;
 1337            	7.00000     	1.40        	Demand          	;
 1973            	4.00000     	1.40        	Demand          	;
 719             	9.00000     	1.40        	Demand          	;
 500             	30.00000    	1.40        	Demand          	;
 1572            	9.00000     	1.40        	Demand          	;
 1413            	8.00000     	1.40        	Demand          	;
 708             	16.00000    	1.40        	Demand          	;
 1547            	16.00000    	1.39        	Demand          	;
 662             	16.00000    	1.39        	Demand          	;
 746             	16.00000    	1.39        	Demand          	;
 951             	27.00000    	1.38        	Demand          	;
 811             	16.00000    	1.38        	Demand          	;
 12              	12.00000    	1.38        	Demand          	;
 1200            	3.00000     	1.38        	Demand          	;
 1764            	12.00000    	1.38        	Demand          	;
 1125            	34.00000    	1.38        	Demand          	;
 1927            	21.00000    	1.37        	Demand          	;
 1077            	33.00000    	1.37        	Demand          	;
 1279            	6.00000     	1.37        	Demand          	;
 1277            	21.00000    	1.37        	Demand          	;
 1351            	2.00000     	1.37        	Demand          	;
 1430            	9.00000     	1.37        	Demand          	;
 278             	27.00000    	1.36        	Demand          	;
 1164            	6.00000     	1.36        	Demand          	;
 62              	25.00000    	1.36        	Demand          	;
 122             	16.00000    	1.36        	Demand          	;
 1291            	14.00000    	1.35        	Demand          	;
 258             	19.00000    	1.35        	Demand          	;
 1342            	13.00000    	1.35        	Demand          	;
 1692            	19.00000    	1.35        	Demand          	;
 2021            	6.00000     	1.34        	Demand          	;
 2020            	26.00000    	1.33        	Demand          	;
 219             	19.00000    	1.33        	Demand          	;
 38              	13.00000    	1.33        	Demand          	;
 1969            	16.00000    	1.33        	Demand          	;
 767             	34.00000    	1.32        	Demand          	;
 1307            	28.00000    	1.32        	Demand          	;
 299             	21.00000    	1.32        	Demand          	;
 1143            	30.00000    	1.32        	Demand          	;
 1455            	2.00000     	1.31        	Demand          	;
 1887            	26.00000    	1.31        	Demand          	;
 732             	16.00000    	1.31        	Demand          	;
 1924            	8.00000     	1.31        	Demand          	;
 759             	32.00000    	1.31        	Demand          	;
 178             	7.00000     	1.31        	Demand          	;
 129             	18.00000    	1.30        	Demand          	;
 1005            	31.00000    	1.30        	Demand          	;
 1755            	13.00000    	1.30        	Demand          	;
 645             	7.00000     	1.30        	Demand          	;
 1374            	16.00000    	1.30        	Demand          	;
 982             	4.00000     	1.30        	Demand          	;
 184             	7.00000     	1.30        	Demand          	;
 1029            	31.00000    	1.30        	Demand          	;
 1842            	13.00000    	1.29        	Demand          	;
 1828            	13.00000    	1.29        	Demand          	;
 1618            	11.00000    	1.29        	Demand          	;
 196             	13.00000    	1.29        	Demand          	;
 1222            	8.00000     	1.29        	Demand          	;
 327             	18.00000    	1.29        	Demand          	;
 376             	3.00000     	1.28        	Demand          	;
 1751            	16.00000    	1.28        	Demand          	;
 640             	27.00000    	1.28        	Demand          	;
 216             	16.00000    	1.28        	Demand          	;
 1473            	27.00000    	1.28        	Demand          	;
 802             	24.00000    	1.28        	Demand          	;
 1069            	33.00000    	1.27        	Demand          	;
 1740            	15.00000    	1.27        	Demand          	;
 595             	28.00000    	1.27        	Demand          	;
 1708            	11.00000    	1.27        	Demand          	;
 613             	38.00000    	1.27        	Demand          	;
 785             	23.00000    	1.27        	Demand          	;
 1194            	33.00000    	1.26        	Demand          	;
 155             	33.00000    	1.26        	Demand          	;
 1699            	11.00000    	1.26        	Demand          	;
 670             	28.00000    	1.26        	Demand          	;
 36              	12.00000    	1.26        	Demand          	;
 1443            	9.00000     	1.25        	Demand          	;
 1100            	34.00000    	1.25        	Demand          	;
 1068            	4.00000     	1.25        	Demand          	;
 1525            	11.00000    	1.25        	Demand          	;
 845             	6.00000     	1.25        	Demand          	;
 1496            	16.00000    	1.24        	Demand          	;
 1364            	14.00000    	1.23        	Demand          	;
 669             	9.00000     	1.23        	Demand          	;
 188             	10.00000    	1.23        	Demand          	;
 915             	27.00000    	1.23        	Demand          	;
 1072            	34.00000    	1.23        	Demand          	;
 425             	8.00000     	1.23        	Demand          	;
 622             	19.00000    	1.23        	Demand          	;
 457             	8.00000     	1.23        	Demand          	;
 634             	4.00000     	1.22        	Demand          	;
 1425            	9.00000     	1.22        	Demand          	;
 627             	11.00000    	1.22        	Demand          	;
 150             	18.00000    	1.22        	Demand          	;
 431             	23.00000    	1.21        	Demand          	;
 70              	12.00000    	1.21        	Demand          	;
 35              	7.00000     	1.21        	Demand          	;
 1800            	13.00000    	1.21        	Demand          	;
 606             	22.00000    	1.21        	Demand          	;
 1980            	8.00000     	1.20        	Demand          	;
 588             	28.00000    	1.20        	Demand          	;
 1537            	3.00000     	1.20        	Demand          	;
 1393            	21.00000    	1.20        	Demand          	;
 1483            	6.00000     	1.19        	Demand          	;
 1               	9.00000     	1.19        	Demand          	;
 1641            	12.00000    	1.19        	Demand          	;
 760             	16.00000    	1.18        	Demand          	;
 1355            	13.00000    	1.18        	Demand          	;
 644             	16.00000    	1.18        	Demand          	;
 1862            	21.00000    	1.18        	Demand          	;
 683             	12.00000    	1.17        	Demand          	;
 1910            	32.00000    	1.17        	Demand          	;
 204             	13.00000    	1.17        	Demand          	;
 430             	8.00000     	1.17        	Demand          	;
 267             	16.00000    	1.17        	Demand          	;
 1311            	14.00000    	1.16        	Demand          	;
 1122            	32.00000    	1.16        	Demand          	;
 512             	9.00000     	1.16        	Demand          	;
 833             	4.00000     	1.16        	Demand          	;
 681             	16.00000    	1.16        	Demand          	;
 1385            	8.00000     	1.15        	Demand          	;
 117             	7.00000     	1.15        	Demand          	;
 1371            	8.00000     	1.15        	Demand          	;
 1516            	6.00000     	1.15        	Demand          	;
 698             	14.00000    	1.14        	Demand          	;
 434             	3.00000     	1.14        	Demand          	;
 449             	7.00000     	1.14        	Demand          	;
 1587            	13.00000    	1.14        	Demand          	;
 585             	28.00000    	1.14        	Demand          	;